; DO NOT EDIT
; GENERATED BY GENPROXY

ifdef RAX
else
.model flat, C
.stack 4096
endif

$definitions$

.data
$variables$

.code
$jmps$

end
