; DO NOT EDIT
; GENERATED BY GENPROXY

ifdef RAX
else
.model flat, C
.stack 4096
endif

${ASM_DEFS}

.data
${ASM_VARS}

.code
${ASM_JMPS}

end
